! SP PBE0 RIJCOSX D3BJ def2-TZVP def2/J 
%output 
xyzfile=True 
end 
%scf 
maxiter 250 
end
%output
Print[P_Hirshfeld] = 1
end
% maxcore
4000
*xyz 0 1
C   -0.89353769  -1.25271019  -0.18340425 
C    0.42494081  -1.46804626  -0.25625112 
C    1.44734205  -0.37789261  -0.12257713 
C    0.82378915   1.00985890  -0.23755915 
C   -0.46060806   1.09930860   0.57881413 
C   -1.49577724   0.09685428   0.07712475 
H   -1.58145254  -2.09498442  -0.31593342 
H    0.79252262  -2.48625525  -0.42454348 
H    2.23365611  -0.51073476  -0.88535875 
H    1.96772079  -0.48407572   0.84868391 
H    0.59056314   1.21477355  -1.29738234 
H    1.54407023   1.78075937   0.07889566 
H   -0.87219223   2.12061058   0.55161774 
H   -0.22943988   0.88224808   1.63671070 
H   -2.32172376   0.00077432   0.80262225 
H   -1.96977354   0.46941155  -0.85125947 
*
