! SP PBE0 RIJCOSX D3BJ def2-TZVP def2/J 
%output 
xyzfile=True 
end 
%scf 
maxiter 250 
end
%output
Print[P_Hirshfeld] = 1
end
% maxcore
4000
*xyz 0 1
C    0.66404200   0.03918274   0.01041237 
C   -0.66404124  -0.03918116  -0.01037914 
H    1.29227049  -0.85634231   0.04054684 
H    1.18336413   1.00232672  -0.00151501 
H   -1.29227447   0.85634091  -0.04051237 
H   -1.18336091  -1.00232690   0.00154731 
*
