! SP PBE0 RIJCOSX D3BJ def2-TZVP def2/J 
%geom
modify_internal
{ B 2 3 A } end
end
%geom
modify_internal
{ B 4 5 A } end
end
%output 
xyzfile=True 
end 
%scf 
maxiter 250 
end
%output
Print[P_Hirshfeld] = 1
end
% maxcore
4000
*xyz 0 1
C   -0.84961654  -1.37818011   0.18263566 
C    0.53380910  -1.53894497  -0.04153931 
C    1.25934195  -0.64381662  -0.79244594 
C    0.91383138   1.30887913   0.37281319 
C   -0.43651238   1.46416032   0.59318580 
C   -1.55271660  -0.31611608  -0.33644612 
H   -1.31921900  -1.99602103   0.95488939 
H    1.07019777  -2.27360921   0.56778513 
H    0.79043804  -0.08773980  -1.60535976 
H    2.34783675  -0.72733364  -0.85250153 
H    1.40890069   1.86525662  -0.42689525 
H    1.56511142   0.95056608   1.17149514 
H   -1.02164898   2.14526588  -0.02963802 
H   -0.86629244   1.22990476   1.56836349 
H   -2.59540904  -0.15191248  -0.05149396 
H   -1.24799212   0.14955113  -1.27460791 
*
