2
Coordinates from ORCA-job H2_opt_orca E  -1.163812160602
  H       0.388292     -0.000000      0.000000
  H      -0.388292      0.000000      0.000000
2
Coordinates from ORCA-job H2_opt_orca E  -1.163913135857
  H       0.375513      0.000000      0.000000
  H      -0.375513      0.000000      0.000000
2
Coordinates from ORCA-job H2_opt_orca E  -1.163974201314
  H       0.380537      0.000000      0.000000
  H      -0.380537      0.000000      0.000000
2
Coordinates from ORCA-job H2_opt_orca E  -1.163974352721
  H       0.380304      0.000000      0.000000
  H      -0.380304      0.000000      0.000000
2
Coordinates from ORCA-job H2_opt_orca E  -1.163974352903
  H       0.380296      0.000000      0.000000
  H      -0.380296      0.000000      0.000000
