10
Generated by autodE on: 2025-05-23. charge = 0 mult = 1 E = -155.853463 Ha
C      1.84441   -0.09427   -0.10897
C      0.60949    0.38579    0.09226
C     -0.60948   -0.38584   -0.09230
C     -1.84438    0.09426    0.10895
H      2.73216    0.52396    0.04287
H      2.00587   -1.12708   -0.43380
H      0.48265    1.42562    0.41757
H     -0.48267   -1.42567   -0.41760
H     -2.73223   -0.52384   -0.04286
H     -2.00582    1.12708    0.43377
