! LooseOpt PBE0 RIJCOSX D3BJ def2-SVP def2/J 
%geom Constraints
{ B 2 3 2.300049366945611 C }
{ B 4 5 2.29771874679169 C }
    end
end
%geom MaxIter 10 end
%output 
xyzfile=True 
end 
%scf 
maxiter 250 
end
%output
Print[P_Hirshfeld] = 1
end
% maxcore
4000
*xyz 0 1
C   -1.57093909  -1.78063350  -0.41636672 
C   -0.22144649  -1.91642315  -0.81438368 
C    0.48243345  -0.88918825  -1.35165494 
C    0.35718956   0.56791688   0.42323843 
C   -0.93784777   0.70915738   0.79030265 
C   -2.25308422  -0.61591954  -0.54882433 
H   -1.98799295  -2.56981672   0.19529398 
H    0.30523333  -2.80201600  -0.48455753 
H    1.54184483  -0.98642674  -1.52588595 
H   -0.00379316  -0.10110801  -1.89635295 
H    0.83245374   1.28922378  -0.21886336 
H    1.01380088  -0.08642462   0.96954180 
H   -1.52169595   1.54486110   0.44482702 
H   -1.32979182   0.17397024   1.63731096 
H   -3.23643947  -0.50929031  -0.11997743 
H   -2.00465487   0.09480746  -1.31519797 
*
