16
Generated by autodE on: 2025-05-23. charge = 0 mult = 1 E = -17.797830 Ha
C     -1.16878   -1.61700    0.00088
C      0.19374   -1.76010   -0.41446
C      0.61272   -1.00593   -1.44273
C      0.40554    0.95195   -0.25047
C     -0.56918    0.95270    0.68038
C     -1.39522   -1.12213    1.22792
H     -1.92451   -1.53528   -0.76867
H      0.90341   -2.14121    0.30749
H     -0.08932   -0.66472   -2.18558
H      1.65247   -0.94867   -1.72008
H      1.43781    0.86075    0.04059
H      0.21589    1.31329   -1.24443
H     -1.56790    1.26163    0.42407
H     -0.32829    0.92380    1.72710
H     -0.65946   -1.24473    2.00553
H     -2.38431   -0.85008    1.55807
