16
Generated by autodE on: 2025-05-23. charge = 0 mult = 1 E = -234.090779 Ha
C     -1.58212   -1.82474   -0.43805
C     -0.23427   -1.96076   -0.83219
C      0.48835   -0.90317   -1.33244
C      0.36826    0.59434    0.40919
C     -0.94828    0.73117    0.78785
C     -2.24996   -0.62636   -0.53209
H     -2.02970   -2.63310    0.14910
H      0.29940   -2.86850   -0.53261
H      1.56060   -1.00569   -1.51899
H     -0.00484   -0.10265   -1.88540
H      0.84282    1.35076   -0.22045
H      1.04808   -0.02684    0.99429
H     -1.52863    1.59681    0.45960
H     -1.32073    0.22344    1.67881
H     -3.25318   -0.51827   -0.11145
H     -1.99050    0.09627   -1.30670
