16
Coordinates from ORCA-job TS_5ZPuRE_ll_ad_2-3_4-5_conf299_opt_orca E -234.087523083905
  C      -1.570938     -1.780623     -0.416384
  C      -0.221426     -1.916436     -0.814425
  C       0.482446     -0.889287     -1.351746
  C       0.357159      0.567994      0.423321
  C      -0.937809      0.709217      0.790348
  C      -2.253105     -0.615946     -0.548850
  H      -1.987992     -2.569798      0.195287
  H       0.305261     -2.802023     -0.484593
  H       1.541791     -0.986446     -1.525896
  H      -0.003758     -0.101177     -1.896338
  H       0.832414      1.289200     -0.218808
  H       1.013740     -0.086365      0.969532
  H      -1.521678      1.544866      0.444858
  H      -1.329765      0.174008      1.637302
  H      -3.236410     -0.509293     -0.119986
  H      -2.004660      0.094799     -1.315171
16
Coordinates from ORCA-job TS_5ZPuRE_ll_ad_2-3_4-5_conf299_opt_orca E -234.090050849430
  C      -1.575261     -1.794939     -0.420272
  C      -0.222898     -1.930889     -0.818710
  C       0.487590     -0.890578     -1.350325
  C       0.363894      0.572815      0.419819
  C      -0.944254      0.714785      0.790988
  C      -2.256839     -0.616212     -0.545082
  H      -2.000986     -2.593731      0.195834
  H       0.311545     -2.827724     -0.488677
  H       1.562168     -0.986887     -1.527236
  H      -0.006462     -0.087351     -1.898676
  H       0.846335      1.306050     -0.230319
  H       1.031840     -0.085748      0.976038
  H      -1.536797      1.563645      0.442387
  H      -1.340105      0.176658      1.652792
  H      -3.254048     -0.505240     -0.110787
  H      -2.000453      0.108038     -1.319323
16
Coordinates from ORCA-job TS_5ZPuRE_ll_ad_2-3_4-5_conf299_opt_orca E -234.090376962921
  C      -1.577332     -1.805341     -0.425749
  C      -0.226368     -1.941051     -0.823255
  C       0.487533     -0.892709     -1.345999
  C       0.366541      0.578811      0.417581
  C      -0.946385      0.720415      0.790757
  C      -2.254838     -0.618214     -0.541734
  H      -2.008037     -2.605426      0.186602
  H       0.309800     -2.839641     -0.498165
  H       1.562847     -0.988627     -1.525188
  H      -0.007425     -0.088580     -1.894143
  H       0.849093      1.315915     -0.229901
  H       1.037422     -0.073745      0.979222
  H      -1.538246      1.572415      0.445317
  H      -1.339021      0.187605      1.658564
  H      -3.253996     -0.505963     -0.109596
  H      -1.996318      0.106827     -1.315862
16
Coordinates from ORCA-job TS_5ZPuRE_ll_ad_2-3_4-5_conf299_opt_orca E -234.090664440639
  C      -1.580568     -1.821123     -0.435489
  C      -0.232486     -1.956473     -0.831095
  C       0.486473     -0.897481     -1.337348
  C       0.369236      0.589338      0.413610
  C      -0.948425      0.729548      0.789623
  C      -2.250169     -0.622724     -0.535643
  H      -2.020363     -2.623284      0.167037
  H       0.305226     -2.857782     -0.517304
  H       1.560773     -0.994370     -1.520448
  H      -0.008687     -0.094652     -1.886406
  H       0.849974      1.334109     -0.226121
  H       1.044237     -0.049317      0.986113
  H      -1.536202      1.587171      0.451783
  H      -1.332601      0.208642      1.668384
  H      -3.251231     -0.510184     -0.108681
  H      -1.989917      0.101274     -1.309565
16
Coordinates from ORCA-job TS_5ZPuRE_ll_ad_2-3_4-5_conf299_opt_orca E -234.090733501493
  C      -1.581833     -1.825467     -0.438687
  C      -0.234356     -1.960882     -0.833539
  C       0.486607     -0.900184     -1.333788
  C       0.369291      0.593144      0.411615
  C      -0.948565      0.732170      0.788721
  C      -2.248833     -0.624925     -0.533061
  H      -2.025859     -2.629517      0.157420
  H       0.302770     -2.864279     -0.526282
  H       1.559874     -0.998954     -1.518545
  H      -0.007950     -0.098782     -1.884473
  H       0.847962      1.342734     -0.223304
  H       1.046153     -0.037557      0.990129
  H      -1.533097      1.593184      0.455285
  H      -1.327414      0.217720      1.673223
  H      -3.250617     -0.513724     -0.108903
  H      -1.988861      0.098007     -1.307361
16
Coordinates from ORCA-job TS_5ZPuRE_ll_ad_2-3_4-5_conf299_opt_orca E -234.090769226793
  C      -1.582357     -1.826069     -0.439250
  C      -0.234732     -1.961786     -0.833621
  C       0.487533     -0.902389     -1.332146
  C       0.368670      0.594677      0.409948
  C      -0.948356      0.732360      0.787970
  C      -2.249057     -0.626280     -0.531798
  H      -2.029257     -2.632691      0.150757
  H       0.300599     -2.867816     -0.531916
  H       1.559980     -1.003571     -1.518151
  H      -0.006172     -0.101951     -1.884582
  H       0.844819      1.348903     -0.220994
  H       1.047303     -0.029274      0.993376
  H      -1.529842      1.596573      0.458233
  H      -1.322581      0.222979      1.677172
  H      -3.251659     -0.517060     -0.110027
  H      -1.989621      0.096085     -1.306521
16
Coordinates from ORCA-job TS_5ZPuRE_ll_ad_2-3_4-5_conf299_opt_orca E -234.090779079233
  C      -1.582124     -1.824744     -0.438054
  C      -0.234272     -1.960762     -0.832192
  C       0.488349     -0.903170     -1.332443
  C       0.368261      0.594336      0.409189
  C      -0.948280      0.731170      0.787850
  C      -2.249959     -0.626361     -0.532095
  H      -2.029701     -2.633100      0.149102
  H       0.299398     -2.868502     -0.532615
  H       1.560596     -1.005690     -1.518993
  H      -0.004844     -0.102655     -1.885400
  H       0.842816      1.350765     -0.220450
  H       1.048077     -0.026844      0.994292
  H      -1.528629      1.596805      0.459600
  H      -1.320732      0.223442      1.678810
  H      -3.253183     -0.518268     -0.111453
  H      -1.990502      0.096269     -1.306699
