! OptTS Freq PBE0 RIJCOSX D3BJ def2-SVP def2/J  
%geom
Calc_Hess true
Recalc_Hess 20
Trust -0.1
MaxIter 100
end
%geom
modify_internal
{ B 2 3 A } end
end
%geom
modify_internal
{ B 4 5 A } end
end
%output 
xyzfile=True 
end 
%scf 
maxiter 250 
end
%output
Print[P_Hirshfeld] = 1
end
% maxcore
4000
*xyz 0 1
C   -0.90753937  -1.36551530  -0.20013780 
C    0.40018334  -1.57935780  -0.27054968 
C    1.51051799  -0.63024290  -0.13962703 
C    0.82611119   1.36423301  -0.20262756 
C   -0.34725670   1.42470774   0.65999901 
C   -1.63814496  -0.11142796   0.00854072 
H   -1.56321004  -2.22542572  -0.31997668 
H    0.73268682  -2.60204048  -0.43597677 
H    2.20625781  -0.63521032  -0.96730685 
H    2.00418506  -0.64778674   0.82357599 
H    0.65187621   1.52951543  -1.25529875 
H    1.72397916   1.84016526   0.17031030 
H   -1.01863760   2.25889399   0.50153804 
H   -0.18585637   1.18709515   1.70058876 
H   -2.35285007  -0.13887504   0.81970496 
H   -2.04224248   0.33118168  -0.89251665 
*
