16
Generated by autodE on: 2025-05-23. charge = 0 mult = 1 E = -234.206948 Ha
C     -0.89380   -1.25315   -0.18320
C      0.42505   -1.46844   -0.25660
C      1.44689   -0.37749   -0.12280
C      0.82363    1.01001   -0.23764
C     -0.46041    1.09939    0.57886
C     -1.49526    0.09699    0.07748
H     -1.58237   -2.09500   -0.31513
H      0.79344   -2.48628   -0.42543
H      2.23488   -0.51069   -0.88381
H      1.96593   -0.48349    0.84944
H      0.58905    1.21381   -1.29765
H      1.54429    1.78161    0.07626
H     -0.87224    2.12065    0.55439
H     -0.22824    0.88077    1.63649
H     -2.32274    0.00166    0.80134
H     -1.96799    0.46956   -0.85179
