16
Generated by autodE on: 2025-05-23. charge = 0 mult = 1 E = -17.931439 Ha
C     -0.88426   -1.24664   -0.17754
C      0.41845   -1.45802   -0.25875
C      1.44296   -0.37437   -0.11590
C      0.81140    1.00825   -0.25607
C     -0.45059    1.08770    0.59578
C     -1.48978    0.10079    0.07065
H     -1.58144   -2.06434   -0.30121
H      0.80327   -2.45499   -0.42704
H      2.22616   -0.51035   -0.86639
H      1.92077   -0.46708    0.86570
H      0.54883    1.18247   -1.30187
H      1.52483    1.77788    0.04539
H     -0.85712    2.10122    0.58299
H     -0.20164    0.83711    1.62939
H     -2.31466    0.00600    0.78189
H     -1.91708    0.47426   -0.86684
