10
Generated by autodE on: 2025-05-23. charge = 0 mult = 1 E = -155.686069 Ha
C      1.84497   -0.09418   -0.10899
C      0.60967    0.38591    0.09229
C     -0.60967   -0.38598   -0.09233
C     -1.84492    0.09416    0.10896
H      2.73307    0.52362    0.04274
H      2.00656   -1.12706   -0.43382
H      0.48237    1.42574    0.41762
H     -0.48241   -1.42581   -0.41766
H     -2.73315   -0.52346   -0.04271
H     -2.00648    1.12706    0.43379
