10
Generated by autodE on: 2025-05-23. charge = 0 mult = 1 E = -11.552701 Ha
C      1.82601   -0.09303   -0.10726
C      0.60404    0.38748    0.09330
C     -0.60369   -0.38783   -0.09346
C     -1.82582    0.09293    0.10715
H      2.70788    0.50746    0.03853
H      1.98712   -1.10982   -0.42778
H      0.46687    1.41243    0.41419
H     -0.46665   -1.41287   -0.41436
H     -2.70871   -0.50620   -0.03806
H     -1.98705    1.10945    0.42766
