10
Coordinates from ORCA-job r0_C4H6_conf0_opt_orca E -155.684645763773
  C       1.826009     -0.093026     -0.107262
  C       0.604036      0.387477      0.093301
  C      -0.603685     -0.387830     -0.093456
  C      -1.825819      0.092926      0.107145
  H       2.707877      0.507455      0.038526
  H       1.987116     -1.109819     -0.427783
  H       0.466874      1.412435      0.414189
  H      -0.466650     -1.412874     -0.414364
  H      -2.708706     -0.506195     -0.038056
  H      -1.987051      1.109452      0.427660
10
Coordinates from ORCA-job r0_C4H6_conf0_opt_orca E -155.686027380345
  C       1.840652     -0.093680     -0.108566
  C       0.608472      0.387887      0.092952
  C      -0.608323     -0.388174     -0.093056
  C      -1.840445      0.093553      0.108481
  H       2.733285      0.518909      0.041226
  H       2.004009     -1.126322     -0.433494
  H       0.473595      1.426489      0.418259
  H      -0.473585     -1.426796     -0.418361
  H      -2.733805     -0.518085     -0.040961
  H      -2.003858      1.126218      0.433419
10
Coordinates from ORCA-job r0_C4H6_conf0_opt_orca E -155.686054131174
  C       1.843199     -0.093870     -0.108790
  C       0.609221      0.387133      0.092684
  C      -0.609141     -0.387334     -0.092761
  C      -1.843047      0.093784      0.108731
  H       2.734107      0.520770      0.041791
  H       2.005943     -1.126729     -0.433690
  H       0.477334      1.426347      0.418047
  H      -0.477364     -1.426563     -0.418119
  H      -2.734450     -0.520208     -0.041626
  H      -2.005804      1.126670      0.433633
10
Coordinates from ORCA-job r0_C4H6_conf0_opt_orca E -155.686069419786
  C       1.844973     -0.094180     -0.108990
  C       0.609673      0.385912      0.092292
  C      -0.609671     -0.385978     -0.092330
  C      -1.844924      0.094162      0.108964
  H       2.733066      0.523622      0.042735
  H       2.006559     -1.127064     -0.433819
  H       0.482368      1.425737      0.417624
  H      -0.482414     -1.425811     -0.417656
  H      -2.733153     -0.523462     -0.042710
  H      -2.006478      1.127062      0.433790
