! LooseOpt PBE0 RIJCOSX D3BJ def2-SVP def2/J 
%geom MaxIter 10 end
%output 
xyzfile=True 
end 
%scf 
maxiter 250 
end
%output
Print[P_Hirshfeld] = 1
end
% maxcore
4000
*xyz 0 1
C    1.82600899  -0.09302643  -0.10726224 
C    0.60403586   0.38747691   0.09330057 
C   -0.60368536  -0.38783020  -0.09345577 
C   -1.82581866   0.09292642   0.10714541 
H    2.70787742   0.50745518   0.03852569 
H    1.98711570  -1.10981925  -0.42778335 
H    0.46687444   1.41243495   0.41418865 
H   -0.46665050  -1.41287392  -0.41436365 
H   -2.70870648  -0.50619534  -0.03805559 
H   -1.98705141   1.10945167   0.42766029 
*
