16
Coordinates from ORCA-job p0_C6H10_opt_orca E -234.206947777292
  C      -0.893803     -1.253151     -0.183205
  C       0.425047     -1.468441     -0.256601
  C       1.446892     -0.377494     -0.122798
  C       0.823634      1.010012     -0.237641
  C      -0.460409      1.099387      0.578858
  C      -1.495258      0.096986      0.077479
  H      -1.582368     -2.095005     -0.315133
  H       0.793442     -2.486281     -0.425429
  H       2.234876     -0.510688     -0.883810
  H       1.965930     -0.483486      0.849443
  H       0.589046      1.213808     -1.297646
  H       1.544286      1.781610      0.076257
  H      -0.872245      2.120651      0.554393
  H      -0.228240      0.880767      1.636487
  H      -2.322740      0.001661      0.801340
  H      -1.967991      0.469564     -0.851794
16
Coordinates from ORCA-job p0_C6H10_opt_orca E -234.206949364565
  C      -0.893640     -1.252924     -0.183251
  C       0.424968     -1.468210     -0.256477
  C       1.447039     -0.377643     -0.122674
  C       0.823647      1.009944     -0.237686
  C      -0.460448      1.099309      0.578909
  C      -1.495426      0.096942      0.077305
  H      -1.581928     -2.094924     -0.315402
  H       0.793028     -2.486169     -0.425103
  H       2.234390     -0.510723     -0.884320
  H       1.966513     -0.483715      0.849189
  H       0.589542      1.214122     -1.297574
  H       1.544149      1.781271      0.077141
  H      -0.872188      2.120566      0.553441
  H      -0.228639      0.881252      1.636580
  H      -2.322327      0.001324      0.801752
  H      -1.968579      0.469478     -0.851629
16
Coordinates from ORCA-job p0_C6H10_opt_orca E -234.206950453400
  C      -0.893538     -1.252710     -0.183404
  C       0.424941     -1.468046     -0.256251
  C       1.447342     -0.377893     -0.122577
  C       0.823789      1.009859     -0.237559
  C      -0.460608      1.099309      0.578814
  C      -1.495777      0.096854      0.077125
  H      -1.581453     -2.094984     -0.315933
  H       0.792523     -2.486255     -0.424543
  H       2.233656     -0.510735     -0.885359
  H       1.967721     -0.484076      0.848684
  H       0.590563      1.214774     -1.297382
  H       1.544070      1.780759      0.078896
  H      -0.872192      2.120611      0.551618
  H      -0.229440      0.882248      1.636711
  H      -2.321724      0.000774      0.802622
  H      -1.969774      0.469412     -0.851259
