10
Coordinates from ORCA-job r0_C4H6_opt_orca E -155.686069419562
  C       1.844973     -0.094180     -0.108990
  C       0.609673      0.385912      0.092292
  C      -0.609671     -0.385978     -0.092330
  C      -1.844924      0.094162      0.108964
  H       2.733066      0.523622      0.042735
  H       2.006559     -1.127064     -0.433819
  H       0.482368      1.425737      0.417624
  H      -0.482414     -1.425811     -0.417656
  H      -2.733153     -0.523462     -0.042710
  H      -2.006478      1.127062      0.433790
10
Coordinates from ORCA-job r0_C4H6_opt_orca E -155.686070657468
  C       1.844410     -0.094266     -0.108974
  C       0.609491      0.385791      0.092262
  C      -0.609484     -0.385839     -0.092295
  C      -1.844381      0.094256      0.108948
  H       2.732161      0.523956      0.042872
  H       2.005874     -1.127078     -0.433800
  H       0.482649      1.425615      0.417572
  H      -0.482674     -1.425668     -0.417601
  H      -2.732225     -0.523844     -0.042858
  H      -2.005822      1.127076      0.433774
