! Opt PBE0 RIJCOSX D3BJ def2-SVP def2/J 
%output 
xyzfile=True 
end 
%scf 
maxiter 250 
end
%output
Print[P_Hirshfeld] = 1
end
% maxcore
4000
*xyz 0 1
C    0.66373722   0.03918017   0.01040352 
C   -0.66370927  -0.03915962  -0.01037048 
H    1.29438820  -0.85492546   0.04054664 
H    1.18568448   1.00116740  -0.00144274 
H   -1.29444511   0.85488825  -0.04052547 
H   -1.18565552  -1.00115074   0.00148853 
*
